grid_simulations/tests/Result_no_control/output_voltage_11_30.csv
# Result_no_control/output_voltage_11_30.csv run at 2000-01-01 11:30:00 EST on 963 nodes
node_name,voltA_mag,voltA_angle,voltB_mag,voltB_angle,voltC_mag,voltC_angle
SourceBus,6668.395609,0.000000,6668.395609,4.188790,6668.395609,2.094395
Bus1,249.515748,-0.547349,249.396266,3.644449,250.194820,1.554183
Bus2,249.205657,-0.547004,249.120785,3.644404,250.065520,1.554305
Bus3,249.173150,-0.546968,249.091905,3.644399,250.051966,1.554318
Bus4,249.142697,-0.546934,249.064849,3.644395,250.039267,1.554330
Bus5,249.116146,-0.546905,249.041260,3.644391,250.028195,1.554340
Bus6,249.074318,-0.546858,249.004097,3.644385,250.010753,1.554357
Bus7,246.227326,-0.543644,246.473536,3.643971,248.823193,1.555486
Bus8,246.099874,-0.543499,246.360197,3.643952,248.770012,1.555537
Bus9,245.993797,-0.543377,246.265863,3.643937,248.725748,1.555580
Bus10,245.900709,-0.543271,246.183077,3.643923,248.686904,1.555617
Bus11,245.831249,-0.543191,246.121303,3.643913,248.657919,1.555644
Bus12,245.766045,-0.543116,246.063313,3.643903,248.630709,1.555670
Bus13,245.725952,-0.543070,246.027654,3.643897,248.613978,1.555687
Bus14,245.626139,-0.542956,245.938880,3.643883,248.572324,1.555726
Bus15,244.817688,-0.542024,245.219737,3.643763,248.234912,1.556050
Bus16,244.817688,-0.542024,245.219737,3.643763,248.234912,1.556050
Bus17,243.837590,-0.540887,244.347657,3.643617,247.825778,1.556444
Bus18,244.817688,-0.542024,245.219737,3.643763,248.234912,1.556050
Bus19,243.770164,-0.540808,244.287653,3.643607,247.797628,1.556471
Bus20,244.817688,-0.542024,245.219737,3.643763,248.234912,1.556050
Bus21,243.694456,-0.540720,244.220275,3.643595,247.766020,1.556501
Bus22,244.817688,-0.542024,245.219737,3.643763,248.234912,1.556050
Bus23,243.571191,-0.540576,244.110571,3.643577,247.714555,1.556551
Bus24,244.817688,-0.542024,245.219737,3.643763,248.234912,1.556050
Bus25,243.346955,-0.540313,243.910992,3.643543,247.620930,1.556641
Bus26,244.817688,-0.542024,245.219737,3.643763,248.234912,1.556050
Bus27,243.012854,-0.539974,243.912021,3.643524,247.624591,1.556654
Bus28,240.926733,-0.537358,241.371300,3.643825,246.318189,1.557301
Bus29,244.817688,-0.542024,245.219737,3.643763,248.234912,1.556050
Bus30,242.966847,-0.539928,243.912163,3.643521,247.625095,1.556656
Bus31,242.968021,-0.539929,243.912159,3.643521,247.625082,1.556656
Bus32,240.282791,-0.536561,240.695197,3.643901,245.971396,1.557477
Bus33,244.817688,-0.542024,245.219737,3.643763,248.234912,1.556050
Bus34,242.861488,-0.539820,243.912487,3.643515,247.626250,1.556660
Bus35,242.966503,-0.539927,243.912164,3.643521,247.625099,1.556656
Bus36,240.286399,-0.536547,240.367609,3.644237,245.972345,1.557458
Bus37,238.230396,-0.534524,238.967086,3.643832,244.893220,1.558585
Bus38,244.817688,-0.542024,245.219737,3.643763,248.234912,1.556050
Bus39,242.964320,-0.539925,243.912171,3.643521,247.625123,1.556656
Bus40,240.286525,-0.536547,240.356167,3.644249,245.972378,1.557458
Bus41,240.286968,-0.536545,240.315947,3.644290,245.972494,1.557455
Bus42,236.806759,-0.533091,237.767893,3.643784,244.145216,1.559359
Bus43,238.230396,-0.534524,238.967086,3.643832,244.893220,1.558585
Bus44,244.817688,-0.542024,245.219737,3.643763,248.234912,1.556050
Bus45,242.961521,-0.539922,243.912179,3.643521,247.625154,1.556657
Bus46,240.286582,-0.536547,240.351010,3.644254,245.972393,1.557457
Bus47,240.288337,-0.536540,240.191642,3.644418,245.972854,1.557448
Bus48,235.731304,-0.531996,236.861714,3.643748,243.580078,1.559947
Bus49,238.230396,-0.534524,238.967086,3.643832,244.893220,1.558585
Bus50,244.817688,-0.542024,245.219737,3.643763,248.234912,1.556050
Bus51,242.954702,-0.539915,243.912200,3.643520,247.625228,1.556657
Bus52,240.286642,-0.536547,240.345544,3.644260,245.972409,1.557457
Bus53,235.576268,-0.531837,236.731062,3.643742,243.498604,1.560032
Bus54,235.731304,-0.531996,236.861714,3.643748,243.580078,1.559947
Bus55,238.230396,-0.534524,238.967086,3.643832,244.893220,1.558585
Bus56,244.817688,-0.542024,245.219737,3.643763,248.234912,1.556050
Bus57,242.948865,-0.539909,243.912218,3.643520,247.625292,1.556657
Bus58,240.286699,-0.536546,240.340338,3.644265,245.972424,1.557457
Bus59,234.874073,-0.531116,236.139240,3.643718,243.129568,1.560418
Bus60,235.731304,-0.531996,236.861714,3.643748,243.580078,1.559947
Bus61,238.230396,-0.534524,238.967086,3.643832,244.893220,1.558585
Bus62,244.817688,-0.542024,245.219737,3.643763,248.234912,1.556050
Bus63,242.920882,-0.539881,243.912305,3.643518,247.625599,1.556658
Bus64,240.286734,-0.536546,240.337221,3.644268,245.972433,1.557457
Bus65,234.753908,-0.530990,236.016584,3.643755,243.047059,1.560468
Bus66,234.389718,-0.530606,236.140795,3.643689,243.134849,1.560437
Bus67,235.731304,-0.531996,236.861714,3.643748,243.580078,1.559947
Bus68,238.230396,-0.534524,238.967086,3.643832,244.893220,1.558585
Bus69,244.817688,-0.542024,245.219737,3.643763,248.234912,1.556050
Bus70,242.821973,-0.539780,243.912609,3.643512,247.626683,1.556662
Bus71,240.286801,-0.536546,240.331104,3.644275,245.972450,1.557456
Bus72,233.334481,-0.529500,234.567469,3.644196,242.072290,1.561063
Bus73,234.271353,-0.530481,236.141175,3.643682,243.136140,1.560442
Bus74,234.271353,-0.530481,236.141175,3.643682,243.136140,1.560442
Bus75,235.731304,-0.531996,236.861714,3.643748,243.580078,1.559947
Bus76,238.230396,-0.534524,238.967086,3.643832,244.893220,1.558585
Bus77,244.817688,-0.542024,245.219737,3.643763,248.234912,1.556050
Bus78,240.287142,-0.536545,240.300106,3.644306,245.972540,1.557454
Bus79,232.839827,-0.528976,234.062355,3.644351,241.732530,1.561272
Bus80,235.731304,-0.531996,236.861714,3.643748,243.580078,1.559947
Bus81,238.230396,-0.534524,238.967086,3.643832,244.893220,1.558585
Bus82,244.817688,-0.542024,245.219737,3.643763,248.234912,1.556050
Bus83,240.288429,-0.536540,240.183298,3.644427,245.972878,1.557447
Bus84,232.731886,-0.528861,233.952124,3.644385,241.658385,1.561318
Bus85,235.731304,-0.531996,236.861714,3.643748,243.580078,1.559947
Bus86,238.230396,-0.534524,238.967086,3.643832,244.893220,1.558585
Bus87,244.817688,-0.542024,245.219737,3.643763,248.234912,1.556050
Bus88,232.513008,-0.528628,233.728592,3.644454,241.508032,1.561410
Bus89,235.731304,-0.531996,236.861714,3.643748,243.580078,1.559947
Bus90,238.230396,-0.534524,238.967086,3.643832,244.893220,1.558585
Bus91,244.817688,-0.542024,245.219737,3.643763,248.234912,1.556050
Bus92,232.306608,-0.528409,233.517793,3.644519,241.366244,1.561498
Bus93,238.230396,-0.534524,238.967086,3.643832,244.893220,1.558585
Bus94,244.817688,-0.542024,245.219737,3.643763,248.234912,1.556050
Bus95,232.186645,-0.528281,233.395268,3.644557,241.283832,1.561549
Bus96,238.230396,-0.534524,238.967086,3.643832,244.893220,1.558585
Bus97,244.817688,-0.542024,245.219737,3.643763,248.234912,1.556050
Bus98,232.107421,-0.528196,233.314351,3.644582,241.229406,1.561582
Bus99,238.230396,-0.534524,238.967086,3.643832,244.893220,1.558585
Bus100,244.817688,-0.542024,245.219737,3.643763,248.234912,1.556050
Bus101,231.998037,-0.528079,233.202626,3.644616,241.154258,1.561629
Bus102,238.230396,-0.534524,238.967086,3.643832,244.893220,1.558585
Bus103,244.817688,-0.542024,245.219737,3.643763,248.234912,1.556050
Bus104,231.998214,-0.528079,233.199524,3.644616,241.152465,1.561623
Bus105,231.924486,-0.528010,233.144340,3.644615,241.113712,1.561676
Bus106,238.230396,-0.534524,238.967086,3.643832,244.893220,1.558585
Bus107,231.998427,-0.528079,233.195771,3.644615,241.150295,1.561615
Bus108,231.882779,-0.527971,233.111289,3.644614,241.090721,1.561703
Bus109,238.230396,-0.534524,238.967086,3.643832,244.893220,1.558585
Bus110,231.998675,-0.528079,233.191422,3.644614,241.147780,1.561606
Bus111,230.237424,-0.526411,231.807185,3.644574,240.183683,1.562761
Bus112,238.230396,-0.534524,238.967086,3.643832,244.893220,1.558585
Bus113,231.999052,-0.528079,233.184790,3.644613,241.143946,1.561593
Bus114,230.072627,-0.526253,231.676542,3.644570,240.092833,1.562868
Bus115,238.230396,-0.534524,238.967086,3.643832,244.893220,1.558585
Bus116,231.999537,-0.528080,233.176264,3.644612,241.139016,1.561576
Bus117,230.071672,-0.526260,231.669776,3.644570,240.085419,1.562852
Bus118,229.570976,-0.525950,231.333458,3.644273,239.881810,1.563099
Bus119,238.230396,-0.534524,238.967086,3.643832,244.893220,1.558585
Bus120,231.999885,-0.528080,233.170143,3.644611,241.135477,1.561564
Bus121,230.071672,-0.526260,231.669776,3.644570,240.085419,1.562852
Bus122,230.071207,-0.526264,231.666482,3.644570,240.081809,1.562845
Bus123,228.666369,-0.525399,230.714801,3.643736,239.501290,1.563518
Bus124,238.230396,-0.534524,238.967086,3.643832,244.893220,1.558585
Bus125,232.000378,-0.528080,233.161495,3.644610,241.130476,1.561546
Bus126,230.071672,-0.526260,231.669776,3.644570,240.085419,1.562852
Bus127,230.069023,-0.526279,231.651008,3.644569,240.064853,1.562811
Bus128,228.259590,-0.525150,230.436613,3.643493,239.330184,1.563707
Bus129,238.230396,-0.534524,238.967086,3.643832,244.893220,1.558585
Bus130,232.000910,-0.528080,233.152137,3.644608,241.125066,1.561528
Bus131,230.071672,-0.526260,231.669776,3.644570,240.085419,1.562852
Bus132,229.954705,-0.526157,231.651381,3.644562,240.066096,1.562815
Bus133,230.096729,-0.526311,231.603334,3.644629,240.006333,1.562671
Bus134,228.138565,-0.525075,230.353847,3.643421,239.279277,1.563763
Bus135,238.230396,-0.534524,238.967086,3.643832,244.893220,1.558585
Bus136,232.001412,-0.528080,233.143313,3.644607,241.119964,1.561510
Bus137,230.071672,-0.526260,231.669776,3.644570,240.085419,1.562852
Bus138,229.944860,-0.526146,231.651413,3.644562,240.066203,1.562816
Bus139,230.117341,-0.526335,231.567869,3.644674,239.962801,1.562566
Bus140,228.001953,-0.524991,230.260422,3.643340,239.221814,1.563827
Bus141,238.230396,-0.534524,238.967086,3.643832,244.893220,1.558585
Bus142,232.002238,-0.528081,233.128804,3.644604,241.111576,1.561481
Bus143,230.071672,-0.526260,231.669776,3.644570,240.085419,1.562852
Bus144,229.935200,-0.526136,231.651445,3.644561,240.066309,1.562816
Bus145,230.131144,-0.526351,231.544118,3.644703,239.933649,1.562497
Bus146,227.873474,-0.524912,230.172559,3.643263,239.167772,1.563886
Bus147,238.230396,-0.534524,238.967086,3.643832,244.893220,1.558585
Bus148,232.006163,-0.528082,233.059816,3.644593,241.071693,1.561342
Bus149,230.071672,-0.526260,231.669776,3.644570,240.085419,1.562852
Bus150,229.927400,-0.526127,231.651470,3.644561,240.066393,1.562816
Bus151,230.134415,-0.526410,231.553980,3.644745,239.901240,1.562485
Bus152,230.134536,-0.526339,231.238478,3.645029,239.934517,1.562478
Bus153,227.723564,-0.524820,230.070042,3.643173,239.104716,1.563956
Bus154,238.230396,-0.534524,238.967086,3.643832,244.893220,1.558585
Bus155,232.007018,-0.528083,233.044787,3.644590,241.063006,1.561312
Bus156,230.071672,-0.526260,231.669776,3.644570,240.085419,1.562852
Bus157,229.915694,-0.526115,231.651509,3.644560,240.066521,1.562817
Bus158,230.143094,-0.526565,231.580136,3.644857,239.815289,1.562455
Bus159,230.134743,-0.526338,231.219875,3.645049,239.934570,1.562477
Bus160,227.680429,-0.524793,230.040543,3.643147,239.086573,1.563976
Bus161,238.230396,-0.534524,238.967086,3.643832,244.893220,1.558585
Bus162,232.010865,-0.528068,232.697814,3.644958,241.063995,1.561291
Bus163,232.002543,-0.528115,233.012603,3.644590,241.027722,1.561240
Bus164,230.071672,-0.526260,231.669776,3.644570,240.085419,1.562852
Bus165,229.901580,-0.526100,231.651555,3.644559,240.066674,1.562818
Bus166,230.146110,-0.526619,231.589222,3.644896,239.785434,1.562444
Bus167,230.134932,-0.526337,231.202881,3.645067,239.934618,1.562476
Bus168,227.435374,-0.524642,229.872960,3.643000,238.983497,1.564090
Bus169,238.230396,-0.534524,238.967086,3.643832,244.893220,1.558585
Bus170,232.011592,-0.528066,232.632269,3.645027,241.064181,1.561287
Bus171,231.996603,-0.528158,232.969876,3.644589,240.980881,1.561145
Bus172,230.071672,-0.526260,231.669776,3.644570,240.085419,1.562852
Bus173,229.890917,-0.526088,231.651589,3.644558,240.066790,1.562818
Bus174,230.146110,-0.526619,231.589222,3.644896,239.785434,1.562444
Bus175,230.146820,-0.526634,231.591835,3.644906,239.543738,1.562693
Bus176,230.135010,-0.526337,231.195822,3.645074,239.934638,1.562476
Bus177,227.296967,-0.524556,229.778310,3.642917,238.925281,1.564155
Bus178,232.013092,-0.528060,232.497038,3.645171,241.064567,1.561279
Bus179,231.994521,-0.528146,232.959426,3.644575,240.983670,1.561133
Bus180,231.997010,-0.528167,232.971376,3.644595,240.842210,1.561287
Bus181,230.071672,-0.526260,231.669776,3.644570,240.085419,1.562852
Bus182,229.878579,-0.526075,231.651630,3.644558,240.066925,1.562818
Bus183,230.146110,-0.526619,231.589222,3.644896,239.785434,1.562444
Bus184,230.146897,-0.526636,231.592117,3.644907,239.517635,1.562720
Bus185,230.135179,-0.526336,231.180605,3.645090,239.934682,1.562475
Bus186,227.194226,-0.524493,229.708050,3.642856,238.882066,1.564203
Bus187,231.986330,-0.528099,232.918301,3.644521,240.994645,1.561085
Bus188,231.998699,-0.528202,232.977585,3.644620,240.268329,1.561875
Bus189,230.071672,-0.526260,231.669776,3.644570,240.085419,1.562852
Bus190,229.866977,-0.526063,231.651668,3.644557,240.067051,1.562819
Bus191,230.146110,-0.526619,231.589222,3.644896,239.785434,1.562444
Bus192,230.146110,-0.526619,231.589222,3.644896,239.785434,1.562444
Bus193,230.146971,-0.526637,231.592390,3.644908,239.492387,1.562746
Bus194,230.135609,-0.526335,231.141848,3.645132,239.934792,1.562472
Bus195,227.101857,-0.524436,229.644883,3.642800,238.843214,1.564246
Bus196,231.971707,-0.528016,232.844877,3.644423,241.014243,1.560999
Bus197,231.998864,-0.528206,232.978192,3.644622,240.212257,1.561933
Bus198,231.998795,-0.528204,232.977936,3.644621,240.235917,1.561909
Bus199,230.071672,-0.526260,231.669776,3.644570,240.085419,1.562852
Bus200,229.854495,-0.526049,231.651708,3.644556,240.067187,1.562819
...
SourceBus_1,6643.907102,-0.005379,6646.631637,4.184560,6651.877469,2.089236
LOAD1,242.861488,-0.539820,243.912487,3.643515,247.626250,1.556660
LOAD2,240.288337,-0.536540,240.191642,3.644418,245.972854,1.557448
LOAD3,242.821973,-0.539780,243.912609,3.643512,247.626683,1.556662
LOAD4,234.271353,-0.530481,236.141175,3.643682,243.136140,1.560442
LOAD5,234.271353,-0.530481,236.141175,3.643682,243.136140,1.560442
LOAD6,240.288429,-0.536540,240.183298,3.644427,245.972878,1.557447
LOAD7,232.013092,-0.528060,232.497038,3.645171,241.064567,1.561279
LOAD8,231.999281,-0.528214,232.979726,3.644628,240.070497,1.562079
LOAD9,231.423736,-0.527432,232.846655,3.644390,241.020204,1.561021
LOAD10,232.003969,-0.527889,231.811294,3.645422,241.023817,1.560822
LOAD11,232.003969,-0.527889,231.811294,3.645422,241.023817,1.560822
LOAD12,231.999393,-0.528217,232.980137,3.644630,240.032558,1.562118
LOAD13,230.140815,-0.526315,230.672899,3.645633,239.936123,1.562444
LOAD14,229.639818,-0.525818,231.652410,3.644543,240.069523,1.562828
LOAD15,230.140126,-0.526318,230.734955,3.645567,239.935947,1.562448
LOAD16,230.148468,-0.526669,231.597902,3.644930,238.982648,1.563272
LOAD17,230.148147,-0.526663,231.596723,3.644926,239.091697,1.563159
LOAD18,223.196116,-0.519982,227.009044,3.639620,237.781156,1.566338
LOAD19,225.702737,-0.523597,228.648713,3.642046,237.780502,1.565304
LOAD20,223.417513,-0.520812,227.675245,3.640327,238.120914,1.565735
LOAD21,225.763217,-0.523395,229.033164,3.642232,238.470863,1.564683
LOAD22,223.315105,-0.520698,227.675593,3.640321,238.122026,1.565739
LOAD23,222.652755,-0.518686,226.062706,3.639455,238.312665,1.565949
LOAD24,224.719051,-0.523020,227.683944,3.641941,236.905787,1.565649
LOAD25,217.515207,-0.509740,224.089435,3.633118,239.362213,1.567863
LOAD26,222.954294,-0.520372,224.821948,3.641944,236.576954,1.564028
LOAD27,224.346737,-0.522760,227.179795,3.642082,236.383762,1.565720
LOAD28,224.347095,-0.522768,227.181114,3.642088,236.261062,1.565849
LOAD29,217.157167,-0.508190,223.202265,3.633238,239.361540,1.567140
LOAD30,217.550938,-0.509781,224.089304,3.633121,239.361829,1.567861
LOAD31,217.165982,-0.508200,223.202232,3.633239,239.361445,1.567139
LOAD32,222.485467,-0.519951,224.719775,3.641348,235.980066,1.564540
LOAD33,218.439831,-0.508723,222.306968,3.634972,238.592143,1.566027
LOAD34,218.759701,-0.512043,224.764685,3.634239,239.156730,1.567655
LOAD35,218.516814,-0.508363,221.533118,3.635782,239.040671,1.565161
LOAD36,218.378847,-0.508535,221.395888,3.635683,239.161016,1.565684
LOAD37,218.379087,-0.508534,221.374821,3.635707,239.161072,1.565683
LOAD38,221.912436,-0.519188,223.798006,3.641287,236.279398,1.564170
LOAD39,221.467475,-0.518797,223.679399,3.640816,235.318114,1.564795
LOAD40,221.163692,-0.517873,222.641706,3.641077,235.970012,1.563668
LOAD41,220.439814,-0.515343,220.428162,3.642217,235.632172,1.562481
LOAD42,221.467550,-0.518799,223.679682,3.640817,235.291799,1.564823
LOAD43,219.986897,-0.515064,220.899459,3.641511,234.384471,1.563690
LOAD44,222.786933,-0.520157,224.474000,3.642040,236.507888,1.563997
LOAD45,220.439456,-0.515345,220.460029,3.642182,235.632083,1.562483
LOAD46,219.995122,-0.517115,224.116149,3.640531,236.261098,1.564362
LOAD47,219.986777,-0.515062,220.898995,3.641509,234.427612,1.563644
LOAD48,220.069236,-0.517198,224.115893,3.640536,236.260297,1.564359
LOAD49,219.922703,-0.517033,224.116399,3.640527,236.261881,1.564365
LOAD50,219.623237,-0.512041,218.492598,3.642379,235.661980,1.561090
LOAD51,219.694452,-0.515628,222.437199,3.640200,235.933654,1.563626
LOAD52,218.488277,-0.511931,220.104685,3.640625,235.600607,1.562312
LOAD53,219.623237,-0.512041,218.430650,3.642451,235.661980,1.561090
LOAD54,219.492964,-0.515402,222.437899,3.640187,235.935827,1.563634
LOAD55,218.468212,-0.511869,220.108052,3.640563,235.610877,1.562353
